TITLE Determine NH3(aq) in Frasassi stream water

SOLUTION 1  GB22-3 with general GB values 
        units   mmole/l
        pH	7.48	
        density	1	
        temp	13.7	
        N(-3)	0.081	 as NH4
        Ca	2.9	
        Mg 	0.8	
        K	0.4	
        Na	9.6	
        Cl	10.1	-charge #adjusted Cl to charge balance
        S(6)	1.2	
        C	4.6	#this should be total carbon, read up!
        O(0)	0.025	

SAVE solution 1

SELECTED_OUTPUT
		-reset false
		-file	/Users/danjones/test1.sel
		-simulation	true
		-state	true
		-reaction	true
		-gas CO2(g) CH4(g) N2(g) NH3(g)
		-si CO2(g) CH4(g) N2(g) NH3(g) 	#this will give the saturation indices for the indicated minerals
END

